#separator \x09
#set_separator	,
#empty_field	(empty)
#unset_field	-
#path	weird
#open	2014-04-03-09-58-14
#fields	ts	uid	id.orig_h	id.orig_p	id.resp_h	id.resp_p	name	addl	notice	peer
#types	time	string	addr	port	addr	port	string	string	bool	string
1357687430.129471	-	-	-	-	-	unknown_protocol_2	-	F	bro
1357687471.107169	CSFwH13VcE7wqjGBGe	192.168.64.10	1154	83.133.123.20	53	DNS_Conn_count_too_large	-	F	bro
1357687471.133703	Cfty9p1FHWI8dZhpXi	192.168.64.10	1156	83.133.123.20	53	DNS_Conn_count_too_large	-	F	bro
1357687471.163734	CcJQZ41FlkZLy8Tvz4	192.168.64.10	1158	83.133.123.20	53	DNS_Conn_count_too_large	-	F	bro
1357687471.166641	CF5D5R3nD5AwVO21H3	192.168.64.10	1160	83.133.123.20	53	DNS_Conn_count_too_large	-	F	bro
1357687471.170364	CeIFzK3FQkkMqkTJHg	192.168.64.10	1162	83.133.123.20	53	DNS_Conn_count_too_large	-	F	bro
1357687471.173216	CN9BjG11R0Bp3Qgzf	192.168.64.10	1164	83.133.123.20	53	DNS_Conn_count_too_large	-	F	bro
1357687471.311173	CUeIHv1dlvMT3DHOX7	192.168.64.10	1167	83.133.123.20	53	DNS_Conn_count_too_large	-	F	bro
1357687471.335055	CzDYpq3A1EAKTJOsTj	192.168.64.10	1170	83.133.123.20	53	DNS_Conn_count_too_large	-	F	bro
1357687471.359155	Ch6WsK6pfAwIZqd1	192.168.64.10	1173	83.133.123.20	53	DNS_Conn_count_too_large	-	F	bro
1357687482.146459	CPS3Z31nEc7pubTDO8	192.168.64.10	1185	194.165.17.3	53	DNS_Conn_count_too_large	-	F	bro
1357687482.15157	CzwMTm2jGH5KgQqVhc	192.168.64.10	1185	66.85.130.234	53	DNS_Conn_count_too_large	-	F	bro
1357687482.152744	CgtZ9V1BKu6E2V4Mml	192.168.64.10	1187	194.165.17.3	53	DNS_Conn_count_too_large	-	F	bro
1357687482.152893	C3hxpz31ZnUul2Su1	192.168.64.10	1187	66.85.130.234	53	DNS_Conn_count_too_large	-	F	bro
1357687482.153786	CMET1w4jO6rlxXQd4j	192.168.64.10	1189	194.165.17.3	53	DNS_Conn_count_too_large	-	F	bro
1357687482.153939	CeEYB31BPZ40rvXEL4	192.168.64.10	1189	66.85.130.234	53	DNS_Conn_count_too_large	-	F	bro
#close	2014-04-03-09-58-15
